Geom Title=GEOM_Modelo1-Atucha
Program Version=4.10
Viewing Rectangle=-62522.09 , 823527.91 , 7241815 , 6052254.17 

Junct Name=Par-Aña         
Junct Desc=, 0 , 0 ,-1 ,0
Junct X Y & Text X Y=511852.0625,6967927,511852.0625,6967927
Up River,Reach=AnaCua          ,Canal_AnaCua    
Up River,Reach=Parana          ,Embalse         
Dn River,Reach=Parana          ,Medio           
Junc L&A=1000,0
Junc L&A=500,0

Junct Name=Confluencia     
Junct Desc=, 0 , 0 ,-1 ,0
Junct X Y & Text X Y=340677.125,6980513,340677.125,6980513
Up River,Reach=Paraguay        ,Paraguay        
Up River,Reach=Parana          ,Medio           
Dn River,Reach=Parana          ,ParanaAB-Conf   
Junc L&A=1000,0
Junc L&A=6400,0

Junct Name=SernaPalmas     
Junct Desc=, 0 , 0 ,-1 ,0
Junct X Y & Text X Y=348126.78125,6207069.5,348126.78125,6207069.5
Up River,Reach=Parana          ,Palmas          
Dn River,Reach=GdorDeLaSerna   ,GdorDeLaSerna   
Dn River,Reach=Parana          ,Palmas-Desemboca
Junc L&A=1000,0
Junc L&A=3570,0

Junct Name=miniSerna       
Junct Desc=, 0 , 0 ,-1 ,0
Junct X Y & Text X Y=354258.84375,6220697.5,354258.84375,6220697.5
Up River,Reach=GdorDeLaSerna   ,GdorDeLaSerna   
Up River,Reach=Parana          ,Mini            
Dn River,Reach=Parana          ,Mini-Desembocadu
Junc L&A=2118,0
Junc L&A=3850,0

Junct Name=Bifurcacion     
Junct Desc=, 0 , 0 ,-1 ,0
Junct X Y & Text X Y=147438.546875,6414823,157736.859375,6421667
Up River,Reach=Parana          ,ParanaAB-Conf   
Dn River,Reach=Parana          ,Bif - V.Const   
Dn River,Reach=Parana          ,Victoria        
Junc L&A=10000,0
Junc L&A=10000,0

Junct Name=Parana-Pavon    
Junct Desc=, 0 , 0 ,-1 ,0
Junct X Y & Text X Y=193704.140625,6321553,193704.140625,6321553
Up River,Reach=Parana          ,Bif - V.Const   
Dn River,Reach=Parana          ,VCons - Pedro   
Dn River,Reach=Parana          ,Pavon           
Junc L&A=5000,0
Junc L&A=5000,0

Junct Name=Guazu-Palmas    
Junct Desc=, 0 , 0 ,-1 ,0
Junct X Y & Text X Y=291572.625,6265303.5,291572.625,6265303.5
Up River,Reach=Parana          ,VCons - Pedro   
Dn River,Reach=Parana          ,Palmas          
Dn River,Reach=Parana          ,Guazu-1         
Junc L&A=4000,0
Junc L&A=4000,0

Junct Name=Union_GuaTal    
Junct Desc=, 0 , 0 ,-1 ,0
Junct X Y & Text X Y=294862.40625,6255864,294862.40625,6255864
Up River,Reach=Parana          ,Guazu-1         
Dn River,Reach=Parana          ,Talavera        
Dn River,Reach=Parana          ,Guazu-2         
Junc L&A=6000,0
Junc L&A=883.48,0

Junct Name=Pav-Vict-Iby    
Junct Desc=, 0 , 0 ,-1 ,0
Junct X Y & Text X Y=239835.828125,6318135,239835.828125,6318135
Up River,Reach=Parana          ,Pavon           
Up River,Reach=Parana          ,Victoria        
Dn River,Reach=Parana          ,Ibicuy          
Junc L&A=7000,0
Junc L&A=7000,0

Junct Name=Guazu-Ibicuy    
Junct Desc=, 0 , 0 ,-1 ,0
Junct X Y & Text X Y=298585.25,6257002,298585.25,6257002
Up River,Reach=Parana          ,Ibicuy          
Up River,Reach=Parana          ,Guazu-2         
Dn River,Reach=Parana          ,Guazu-3Talavera 
Junc L&A=6000,0
Junc L&A=5000,0

Junct Name=Guazu-Talave    
Junct Desc=, 0 , 0 ,-1 ,0
Junct X Y & Text X Y=323623.09375,6248753.5,323623.09375,6248753.5
Up River,Reach=Parana          ,Talavera        
Up River,Reach=Parana          ,Guazu-3Talavera 
Dn River,Reach=Parana          ,Guazu-4         
Junc L&A=6000,0
Junc L&A=4340.965,0

Junct Name=unionguazu      
Junct Desc=, 0 , 0 ,-1 ,0
Junct X Y & Text X Y=336243.09375,6242479,336243.09375,6242479
Up River,Reach=Parana          ,Guazu-4         
Dn River,Reach=Parana          ,Guazy-5         
Dn River,Reach=Parana          ,Bravo           
Junc L&A=4389.2,0
Junc L&A=1000,0

Junct Name=Guazu_PMini     
Junct Desc=, 0 , 0 ,-1 ,0
Junct X Y & Text X Y=352243.28125,6232526.5,352243.28125,6232526.5
Up River,Reach=Parana          ,Guazy-5         
Dn River,Reach=Parana          ,Mini            
Dn River,Reach=Parana          ,Guazu-6         
Junc L&A=1200,0
Junc L&A=711.333,0

Junct Name=unionBarca      
Junct Desc=, 0 , 0 ,-1 ,0
Junct X Y & Text X Y=356041.71875,6246439,356041.71875,6246439
Up River,Reach=Parana          ,Bravo           
Dn River,Reach=Parana          ,Bravo-Desembocad
Dn River,Reach=Parana          ,Sauce           
Junc L&A=4000,0
Junc L&A=700,0

Junct Name=GuazuBarca      
Junct Desc=, 0 , 0 ,-1 ,0
Junct X Y & Text X Y=352859.78125,6232834.5,352859.78125,6232834.5
Up River,Reach=Parana          ,Guazu-6         
Dn River,Reach=Parana          ,Guazu-6Desemboca
Dn River,Reach=Parana          ,BarcaGrande     
Junc L&A=2200,0
Junc L&A=1500,0

River Reach=AnaCua          ,Canal_AnaCua    
Reach XY= 80 
     567131.3576    6985683.7522     566415.8112    6985319.1426
     565732.1682    6984986.4363     565486.0567    6984831.4772
     565280.9638    6984681.0757     564975.6032    6984398.5033
     564301.0754    6983751.3212     563535.3952    6983031.2172
     562715.0235    6982279.2098     562268.3767    6981782.4292
     561744.2504    6980966.6152      561065.165    6980027.7454
     560832.7263    6979640.3477      560536.481    6979120.7789
     560335.9457    6978751.6117     560171.8714    6978482.7121
     559962.2209    6978277.6192     559602.1688    6978067.9686
     559205.6559    6977995.0467     558918.4775    6978021.5823
     558671.6452    6978092.1058     557519.7609    6978405.5437
     556838.0335    6978601.4424     556336.5329    6978675.8839
     555815.4424    6978671.9659     555353.1215    6978605.3604
     554859.3958    6978476.8545     554127.0703    6978297.4793
     553151.2202    6978338.9382     551964.0742    6978397.7078
     550780.8461    6978460.3953     550257.9012    6978381.9783
     549771.6608    6978251.5236     549226.1228    6978002.4736
     548645.0062    6977658.5474     548289.2205    6977539.9522
     547802.9801     6977397.638      547186.285    6977243.4642
     546640.7469    6977065.5713      546166.366    6976780.9428
     545288.7614    6976306.5619     544162.1068    6975606.8501
     543082.8903    6974990.1549     542798.2617    6974824.1216
     542489.9141    6974693.6669     542205.2856    6974575.0717
     541742.7642    6974503.9145     540544.9525    6974314.1622
     539418.2979    6974136.2693     538184.9076     6973946.517
     537176.8482    6973768.6242     536581.7861     6973410.187
     536507.0227    6972897.5238      536348.504    6972054.8046
     536050.0882    6970956.4407     534873.5392    6970706.9058
     533178.8325    6971040.5051     531856.0354    6971692.5881
     530626.3931    6972139.7308     529378.1199    6972344.6712
     528539.7274    6972326.0402     527608.1801    6972102.4689
     526266.7522    6971785.7428     524888.0623    6971506.2787
     522782.7656    6970798.3028     521478.5995     6970053.065
     520863.7783    6969643.1842     520379.3738    6969512.7676
     519354.6718     6969400.982     518143.6605    6969568.6605
     517249.3751    6969941.2793     516727.7087    6969866.7556
      516299.197    6969550.0295     515740.2687    6969140.1487
     515442.1736    6968525.3276     515218.6022    6968134.0778
     514138.0075    6967929.1374     513169.1984    6967966.3993
     512243.5147    6967971.5698511852.0678609776967927.00328326
Rch Text X Y=553311.5351652,6981244.5649708
Reverse River Text= 0 

Type RM Length L Ch R = 1 ,25686.44,2246.589,2429.512,2690.929
XS GIS Cut Line=2
     534843.4161    6968134.7273     542093.7295    6993776.5766
Node Last Edited Time=Jul-19-2013 19:16:49
#Sta/Elev= 301 
       0   71.43   49.99   72.62   99.99   76.33  149.98   70.87  199.98   69.48
  249.97   66.51  299.97   64.34  349.96   63.34  399.96   63.35  449.95   63.41
  499.95   63.54  549.94   63.48  649.93   64.32  749.92   64.57  799.91   64.59
  849.91   64.57   899.9   64.73   949.9   64.37  999.89   64.13 1049.89   64.46
 1099.88   64.32 1149.88   64.06 1199.87    64.3 1249.87   64.46 1299.86   64.82
 1349.86   66.77 1389.37   66.62 1399.85   66.58 1449.85      62 1699.82      62
 2249.76   62.18 2299.76   62.22 2449.74    62.5 2749.71   62.74 2999.68      63
 3149.66   63.09 3349.64   63.02 3399.64    62.9 3449.63    62.7 3499.63   62.41
 3549.62   62.24 3599.62   62.25  3799.6   62.43 3899.58   62.58 3999.57   62.77
 4049.57   62.91 4099.56   62.98 4149.56   62.84 4199.55   62.87 4249.55   62.82
 4299.54   62.84 4349.54   62.92 4449.53   63.02 4499.52   63.04 4549.52   62.96
 4599.51   62.81  4649.5   62.59 4799.49   62.04 4849.48   61.94 4949.47   61.91
 4999.47   62.61 5049.46   63.76 5099.46   64.35 5149.45   64.73 5199.45   64.95
 5249.44   64.65 5299.43   65.53 5349.43   65.91 5399.42   65.57 5449.42   66.17
 5499.41    67.5 5549.41   68.37  5599.4   70.49  5649.4   72.85 5699.39   72.84
 5701.27   72.88 5749.39   73.72 5799.38   71.64 5849.38   70.95 5899.37   69.81
 5949.36   69.49 5999.36   70.13 6049.35   71.17 6099.35   71.58 6149.34    71.6
 6199.34   72.17 6249.33   72.64 6299.33   72.51 6349.32   72.27 6399.32   72.23
 6449.31   72.12  6549.3   72.21 6599.29   72.19 6649.29   72.25 6699.28   72.25
 6749.28   72.18 6799.27   72.43 6849.27   73.24 6899.26   73.33 6949.26   73.39
 6999.25   73.41 7049.25   75.02 7099.24    75.2 7149.24   75.25 7199.23   75.26
 7249.23   75.32 7349.21   75.36  7449.2   75.43 7599.19    75.6 7749.17   75.66
 7799.17   75.65 7899.16   75.74 7999.14   75.76 8049.14   75.71 8299.11   75.56
 8349.11   75.49 8499.09   75.45 8599.08   75.45 9149.03   75.26    9449   75.21
 9548.99   75.22 9848.96   75.2410248.92    75.110798.87   75.3411048.84   75.38
11148.83   75.3311248.83   75.2211598.79   74.8811648.79   74.8811748.78   74.96
11848.77   75.0111998.75   75.0112048.75   74.9512098.74   74.9412198.73    74.8
12398.71   74.89 12548.7   74.8912748.68      7512898.66      7513048.65   74.84
13098.64   74.6813148.64   74.5713198.63   74.5313248.63    74.413298.62   74.38
13348.62   74.2413398.62   74.2213448.61   74.0713498.61   74.07 13548.6   73.96
 13598.6   73.9113648.59   73.9213698.59   73.8713748.58   73.8613798.58    73.8
13998.56    73.714198.54   73.5814398.52   73.5814448.51   73.63 14548.5   73.92
 14598.5   73.9514648.49    74.114698.49   74.1214748.48   74.2914798.48   74.31
14848.47    74.514898.47   74.5114948.46    74.714998.46   74.7515148.44   74.77
15398.42   74.8915698.39   75.1515848.38   75.1416048.36   75.2616248.34   75.28
 16548.3   75.5516898.26   75.5217198.23   75.4917298.22   75.5217348.21   75.58
17398.21   75.58 17448.2   75.6917498.19   75.6917548.19   75.7917598.18   75.78
17648.18   75.8517698.17   75.8417798.16   76.0317848.15   76.0517898.15   76.13
17948.14   76.1418198.11   76.3318348.09   76.4618398.09   76.5418448.08   76.57
18498.08   76.7118548.07   76.7818598.06   76.9418648.06   76.9818748.05   77.27
18798.04   77.2718848.04   77.4818898.03   77.5518948.02   77.6918998.02   77.76
19048.01   77.8719098.01   77.89   19148   77.9919197.99   78.1319297.98   78.35
19397.97   78.4719547.95   78.5319797.92   78.9119897.91   79.0220097.89   79.02
20247.87   79.1620297.87   79.1720347.86   79.2720397.85   79.2920497.84   79.26
20597.83   79.17 20847.8   79.0721047.78   78.8821347.74   78.7521397.74   78.76
21447.73   78.7321497.72   78.7421547.72   78.8421597.71   78.8521647.71      79
 21697.7   79.03 21747.7   79.1721847.68    79.321897.68   79.3421997.67   79.51
22297.63   79.6922397.62   79.71 22547.6   79.88 22597.6   79.9922647.59   80.04
22697.58   80.1322747.58   80.1322797.57   80.2222847.57   80.2322897.56   80.37
22947.55   80.4622997.55   80.4723197.53   80.43 23447.5    80.323547.48   80.35
23597.48   80.4423647.47   80.5623697.47   80.6123747.46   80.7423797.46   80.78
23897.44   81.1123947.44   81.1323997.43   81.2924047.43    81.324097.42   81.42
24147.41   81.42 24297.4    81.524347.39   81.6224397.38   81.6524447.38   81.75
24497.37   81.7924747.34    82.224847.33   82.4124997.31   82.5825047.31   82.69
 25097.3   82.83 25147.3   83.1725197.29   83.3225247.29    83.725297.28   83.98
25347.27      8425397.27   84.2625447.26    84.325497.26   84.6225597.24   84.92
25647.24   84.9425697.23   88.1225747.23      8925797.22      8925847.21   89.52
25897.21   93.88 25947.2   97.21 25997.2      9826047.19      9826097.19   99.44
26147.18     10126197.17  101.4726247.17   102.826297.16  103.7126347.16  104.84
26397.15     10726447.14  107.1226497.14  108.3826547.13  108.4426597.13     105
26647.12  104.87
#Mann= 3 ,-1 , 0 
       0      .2       0  199.98     .03       0 5549.41     .03       0
Bank Sta=249.97,5449.42
XS Rating Curve= 0 ,0
Exp/Cntr=0.3,0.1

Type RM Length L Ch R = 1 ,23256.92,2968.407,3175.682,3136.849
XS GIS Cut Line=2
     533023.6132     6968252.134      535371.746    6999306.1906
Node Last Edited Time=Jul-19-2013 19:16:49
#Sta/Elev= 355 
       0   70.85   49.99      70   99.98      66  149.96   63.01  249.94   63.16
  299.93   63.27  399.91   63.72  449.89   63.88  499.88   64.17  549.87   64.31
  599.86   64.27  649.85   64.06  699.84   63.64  749.82   63.54  799.81   63.64
  899.79   63.58  949.78   63.48  999.77   63.55 1049.75   63.55 1149.73   63.34
 1199.72   63.31 1249.71   63.44  1299.7    63.6 1349.68   63.57 1399.67   63.44
 1449.66   63.49 1499.65    63.5 1549.64   63.37 1583.62   62.93 1599.63   62.73
 1649.61   62.02 1749.59   62.15 1799.58   62.18 2049.52      62 2249.47   61.56
 2299.46   61.47 2599.39   61.21 2699.37   61.05 2749.36    61.1 2849.33   61.37
 2899.32   61.46  2999.3   61.25 3049.29   61.12 3099.27   61.06 3149.26   61.19
 3199.25   61.37 3299.23    61.6  3399.2   61.75 3649.14   62.02 3799.11   62.26
 3949.07   62.39 3999.06   62.39 4099.04   62.26 4199.02   62.08    4249   62.11
 4298.99   62.18 4348.98   62.71 4379.73   63.51 4398.97   64.01 4448.96   64.22
 4498.95   64.01 4548.93   64.21 4598.92    64.5 4648.91   65.07  4698.9   64.83
 4748.89   64.91 4848.86    65.6 4898.85   65.49 4948.84   65.08 4998.83   64.49
 5098.81   64.62 5148.79   64.99 5198.78   64.27 5248.77   64.39 5298.76   63.84
 5348.75   63.77 5398.73   63.36 5448.72   63.44 5598.69   63.11 5648.68   63.13
 5698.66    63.1 5748.65    63.1 5798.64   63.14 5898.62   63.12 5948.61   63.08
 5998.59   63.59 6048.58   66.03 6098.57   68.97 6148.56    68.3 6198.55   69.03
 6248.54   71.08 6298.52   71.58 6348.51   71.88  6398.5   71.92 6498.48   71.93
 6548.47   71.88 6598.45    71.9 6648.44   72.36 6698.43   74.62  6848.4   74.62
 6898.38   74.57 6948.37   74.56 7048.35   74.46 7398.27   74.45 7448.25   74.38
 7498.24   74.07 7548.23   74.07 7598.22   73.73 7648.21   73.76  7698.2   72.97
 7748.18   73.17 7798.17   74.16 7848.16   74.23 7898.15   74.54 7948.14   74.67
 7998.13   74.68 8048.11   74.81  8098.1   74.81 8148.09    74.9 8198.08   74.91
 8248.07   74.99 8298.06      75 8398.03   75.18 8448.02   75.18 8498.01   75.27
    8548   75.28 8597.99   75.44 8747.95   75.47 8847.93   75.41 8997.89    75.4
 9047.88   75.47 9097.87   75.46 9147.86   75.33 9197.84   75.33 9247.83   75.28
 9647.74   75.35 9897.68   75.31 9947.67   75.39 9997.66    75.410047.65   75.49
10097.63    75.510147.62   75.5910197.61    75.6 10247.6    75.710347.58   75.67
10397.56   75.5610447.55   75.5610497.54   75.4510547.53   75.4410597.52    75.3
 10647.5   75.2810697.49    75.210747.48   75.4110797.47   75.4310847.46   75.65
10897.45   75.6710947.43   75.5310997.42   75.5211047.41   75.34 11097.4   75.32
11147.39   75.1411197.38   74.8711247.36   74.8211297.35   74.5811347.34   74.53
11397.33    74.311547.29   74.2411647.27   74.3111797.24   74.3611847.22   74.53
11897.21   74.57 11947.2   74.7811997.19   74.8212097.17   75.1312147.15   75.16
12247.13   75.1712447.08   75.1412547.06   75.2712697.02   75.3112946.97   75.27
12996.95   75.1913046.94   75.1613096.93   75.0613146.92   75.0313196.91   74.92
 13246.9   74.8913296.88   74.8113396.86   74.7513846.75   74.7313996.72    74.6
14196.67   74.4814246.66   74.4714346.64   74.36 14496.6   74.3514596.58   74.44
14646.57   74.5114696.56   74.5314746.54    74.614796.53   74.6114846.52   74.59
14896.51   74.5215146.45   74.3615196.44   74.4315246.43   74.5615296.42   74.61
 15346.4    74.715546.36   74.9415596.34   74.9815696.32   75.1716046.24   75.55
16096.23   75.5716146.22   75.62 16196.2   75.6316546.12   75.9116596.11      76
16846.05   76.1617695.85    76.218145.75   76.2718545.65    76.218695.62   76.36
18745.61   76.44 18795.6   76.4918845.58   76.5818945.56   76.61 19195.5    76.6
19245.49   76.6219295.48   76.6919445.44   76.7819795.36   76.6819945.33    76.8
19995.31   76.8620145.28   76.9920245.26   77.1420345.23   77.2320595.17   77.28
20695.15   77.3720795.13   77.4320845.12    77.5 20895.1   77.6720945.09   77.74
20995.08    77.9 22194.8   77.7122494.73    77.622644.69   77.5922744.67   77.63
22794.66   77.7422844.65   77.7622894.63   77.8922944.62   77.9922994.61      78
 23044.6   78.0723094.59   78.0823144.58   78.1423194.56   78.1523244.55   78.21
23294.54   78.2223394.52   78.3423444.51   78.3523494.49    78.423594.47   78.47
23744.44   78.5323844.41   78.6123994.38   78.6624094.35   78.7124144.34   78.76
24194.33   78.7724294.31   78.8924344.29   78.8924394.28   78.9624544.25   78.94
24594.24    78.924644.22   78.91 24744.2   79.1524794.19   79.1624844.18   79.28
24894.17   79.2824944.15   79.3625044.13   79.4125094.12   79.41 25194.1   79.49
25244.08   79.4925294.07   79.53   25594   79.5426343.83   79.4726393.81   79.54
 26443.8   79.5526493.79   79.7126543.78   79.8226593.77   79.8326643.76   79.88
26793.72   79.8626943.69   79.8126993.67   79.9327043.66   79.9227093.65   80.08
27143.64    80.127193.63   80.2627243.62   80.28 27293.6   80.4527343.59   80.46
27443.57   80.8127493.56   80.8327543.54   80.9927593.53   81.0227643.52   81.12
27693.51   81.13 27743.5    81.227793.49   81.1927843.47   81.2527943.45   81.23
27993.44   81.1428043.43   81.1128093.42   81.02 28143.4   80.9928193.39    80.9
28243.38   80.8728293.37   80.7928393.35   80.7928443.33   80.9128493.32   80.94
28543.31   81.06 28593.3   81.0928643.29   81.2128693.28   81.2428793.25   81.51
28843.24   81.5428893.23   81.6528993.21   81.7229043.19   81.7329093.18   81.68
29493.09   81.3829543.08   81.4829643.05   81.5130042.96   81.4730092.95   83.71
30142.94   84.6630192.92    84.430242.91   84.19 30292.9   86.2430342.89      92
30392.88      9430442.87  100.9930492.85     10430542.84  106.7730592.83     108
30642.82  107.3130692.81     10730742.79  109.7230792.78     11130842.77  110.33
30892.76  105.9730992.74     10231042.72   100.931092.71  100.99 31142.7  100.63
#Mann= 5 ,-1 , 0 
       0      .2       0   99.98     .03       0 4648.91      .2       0
 5148.79     .03       0 6098.57      .2       0
Bank Sta=0,6148.56
XS Rating Curve= 0 ,0
Exp/Cntr=0.3,0.1

Type RM Length L Ch R = 1 ,20081.24,3071.441,3157.024,3243.706
XS GIS Cut Line=3
     530753.7514    6967978.1851     527573.6259     6997155.185
527573.5588145296997155.80049545
Node Last Edited Time=Jul-19-2013 19:16:49
#Sta/Elev= 360 
       0   87.75      50   70.82     100    68.8     150   65.79     200   63.03
     250   62.93     300   63.13     350   63.25     450   63.09     500   63.07
     550   62.98     600   63.03     650   62.91     700   63.02  749.99   62.99
  799.99   63.12  849.99      63  949.99   63.07  999.99   62.98 1099.99   63.03
 1149.99   63.17 1199.99   63.19 1249.99   63.12 1299.99   63.17 1349.99   63.09
 1399.99   63.68 1432.75   62.04 1449.99   61.18 1499.99   60.94 1799.99   60.94
 1849.99   61.18 1899.99   61.36 1949.99   61.61 1999.99   61.99 2049.99   62.79
 2099.99   64.48 2149.99   63.82 2199.98   63.25 2249.98   63.15 2299.98   63.18
 2349.98   63.14 2399.98   62.98 2449.98   63.47 2499.98   63.54 2549.98   63.13
 2599.98    63.4 2649.98   63.96 2699.98   64.06 2749.98   64.06 2799.98   64.12
 2849.98   64.14 2899.98   63.73 2949.98   63.72 2999.98   63.51 3049.98    63.9
 3099.98   63.62 3149.98   62.37 3199.98   61.92 3649.98   61.29 3849.98   61.05
 3899.97   60.94 3999.97   60.29 4049.97   60.22 4099.97   60.38 4149.97   60.22
 4199.97   60.14 4299.97   60.57 4349.97   60.82 4399.97      61 4849.97   61.93
 4899.97      62 4999.96   62.03 5049.96   61.96  5093.6   62.02 5099.96   62.03
 5149.96   62.45 5199.96   63.04 5249.96    63.4 5349.96   63.06 5399.96   63.09
 5449.96   63.06 5499.96   62.99 5549.96   62.98 5599.96   63.12 5649.96   63.09
 5699.96   62.91 5849.96   62.96 5899.96   63.02 5949.96   62.98 5999.96    62.9
 6049.95   62.96 6099.95   63.12 6199.95   63.05 6249.95   63.06 6399.95   62.96
 6449.95   62.96 6499.95   63.24 6549.95   64.29 6599.95   64.35 6649.95   63.06
 6749.95    62.9 6799.95   63.81 6849.95   66.07 6899.95   66.37 6949.95   66.48
 6999.95   66.79 7049.94    66.9 7099.94   67.21 7149.94   67.25 7199.94   67.34
 7299.94   67.23 7449.94   67.19 7499.94   67.27 7549.94   67.57 7599.94   67.93
 7649.94   69.39 7699.94   69.54 7749.94   70.39 7799.94   71.36 7849.94   71.67
 7899.94   72.99 7949.94   73.05 7999.94   73.47 8049.94   73.52 8099.93   73.94
 8149.93   73.97 8199.93   74.29 8249.93   74.24 8299.93   74.23 8349.93   74.18
 8399.93   74.17 8449.93   74.11 8499.93    74.1 8549.93   74.05 8599.93   74.04
 8699.93   73.92 8749.93   73.92 8799.93   73.99 8849.93   73.99 8899.93   74.11
 8949.93   74.12 8999.93   74.24 9049.93   74.24 9149.93   74.49 9199.93    74.5
 9249.93   74.68 9299.93   74.68 9349.93    74.9 9399.93   74.88 9449.93   75.15
 9499.93   75.13 9549.93   75.33 9949.93   75.22 9999.93   75.1610049.93   75.16
10099.93   75.6910149.93   76.0410199.93   76.0110249.93   76.2210299.93   76.18
10349.93   76.3810399.93   76.3510449.93   76.4810499.93   76.4910549.93   76.35
10599.93    76.110649.93   76.0510699.93   75.8210749.93   75.7810799.93   75.66
10849.93   75.6410899.93   75.7710999.93   75.8111049.93   75.6111099.93   75.54
11149.93   75.3511249.93   75.2411449.93   75.1211849.93    75.112499.93   74.86
12549.93   74.8612799.93   75.0512849.93   75.1412999.93   75.2613199.93   75.32
13249.93   75.2313299.93   75.0313549.93   74.4713649.93   74.2913999.93   74.32
14199.93   74.2214799.93   74.5614999.93    74.515049.93   74.6315099.93   75.05
15149.93   75.3815199.93    75.515249.93    75.815299.93   75.8815349.93   76.09
15399.93   76.0815499.93   75.9215549.93   75.5815599.93    75.315649.93    75.2
15699.93   74.9315849.93    74.916049.93   74.9816299.93   74.9416349.93   74.96
16649.93   74.9116849.93   74.8916949.93   74.9217099.93   74.9317299.93   74.93
17349.93   75.0517399.93   75.0917499.93   75.0917549.93   75.0617649.93   74.95
17699.93   74.6317749.93   74.5917799.93   74.4417849.93    74.418349.93   74.32
18449.93   74.3618499.93   74.4418549.93   74.4618599.93   74.5518649.93   74.57
18699.93   74.6518749.93   74.5318799.93   74.5318849.93   74.2418899.93    74.2
18949.93   74.0718999.93   74.0519049.93   74.1219099.93   74.1319149.93   74.19
19299.93   74.1319449.93   74.2919549.93   74.5219599.93   74.7519649.93   75.03
19699.93   75.1119749.93   75.4819799.93   75.5819849.93   75.9119899.93   76.01
19949.93   76.3419999.93   76.4520049.93   76.6220099.93   76.6920799.93   76.78
20899.93   76.7621049.93   76.6321399.93    76.521799.93   76.2722299.93    76.5
22499.93   76.6323199.93   76.6523799.93   76.6323999.93   76.6324199.93   76.51
24249.93   76.5324349.93   76.6624399.93   76.8224449.93   76.8524499.93   76.99
24549.93   77.0224599.93   77.1924649.93   77.3224699.93   77.3524749.93   77.49
24799.93   77.4924849.93   77.5724899.93   77.5824949.93   77.6524999.93   77.66
25099.93   77.8325149.93   77.8325199.93   77.9225249.93   77.9225299.93      78
25349.93   78.0125399.93   78.1125449.93   78.1225549.93   78.3125599.93   78.31
25649.93   78.3825699.93   78.3825799.93    78.325849.93   78.1525899.93   78.13
25999.93   77.8226049.93    77.826099.93   77.6526149.93   77.6326199.93    77.5
26249.93   77.4926299.93   77.5426349.93   77.5426449.93   77.6426499.93   77.64
26549.93   77.6926599.93   77.6926649.93   77.7626699.93   77.7626749.93   77.82
26799.93   77.8226899.93   78.0426949.93   78.0426999.93   78.2127049.93   78.21
27099.93   78.3827149.93   78.3927199.93   78.5627249.93   78.5827349.93   78.94
27399.93   78.9727449.93   79.1427499.93   79.1727549.93   79.3127599.93   79.34
27649.93   79.5827699.93    79.627749.93   79.8327799.93   80.1227849.93   80.15
27899.93   80.3727949.93   80.4127999.93   80.7228049.93   80.7928099.93   81.39
28149.93   81.5628199.93   82.1128249.93   82.6128299.93   82.7128349.93   83.03
28399.93   83.1428449.93   83.4828499.93   83.5928549.93   84.6428599.93   86.29
28649.93   92.0728699.93   94.4228749.93   94.9728799.93    98.928849.93  100.83
28899.93  102.6428949.93   103.728999.93  105.3529049.93     10629099.93  104.67
29149.93  104.6629199.93     10529249.93  105.6529299.93     10629349.93  105.36
#Mann= 3 ,-1 , 0 
       0      .2       0     100     .03       0 7649.94      .2       0
Bank Sta=0,7649.94
XS Rating Curve= 0 ,0
Exp/Cntr=0.3,0.1

Type RM Length L Ch R = 1 ,16924.22,2749.988,2840.7,2922.021
XS GIS Cut Line=3
     528501.2833    6967099.0848     520152.3666    6998268.3739
520152.2316731756998268.87762682
Node Last Edited Time=Jul-19-2013 19:16:49
#Sta/Elev= 454 
       0   87.75   49.95   74.56    99.9      71  149.85    70.3   199.8   70.36
  249.75   70.28   299.7   69.97  499.51   69.94  549.46   69.99  599.41   70.29
  649.36   70.12  699.31   70.23  749.26   72.15  799.21   70.26  849.16   70.13
  899.11   70.09  949.06   70.31  999.01   70.68 1048.96   70.96 1148.86   72.45
 1198.81   73.12 1248.76   71.59  1265.5   69.46 1298.72   65.46 1348.67    62.7
 1398.62   62.67 1498.52   62.47 1548.47   62.57 1598.42   62.58 1648.37   62.46
 1698.32   62.59 1748.27   62.57 1848.17   62.26 1898.12   62.34 1948.07   62.52
 1998.02   62.54 2047.97   62.64 2097.92   62.63 2147.88   62.69 2197.83   62.79
 2247.78   62.71 2297.73   62.69 2397.63   62.69 2497.53   62.54 2547.48   62.42
 2562.69   61.82 2597.43   60.46 2647.38    59.6 2697.33    59.7 2747.28   61.26
 2797.23   62.15 2847.18   61.78 2897.13   61.25 2947.09      61 3046.99   60.84
 3096.94      60 3146.89      60 3196.84   60.04 3246.79   60.13 3296.74   60.17
 3346.69    60.1 3396.64   60.12 3446.59   60.92 3496.54   62.04 3546.49   62.09
 3596.44   63.88 3646.39   68.28 3696.34    69.1  3746.3    65.1 3796.25   62.89
  3846.2   62.61 3896.15   62.58  3946.1   62.68 3996.05    62.7 4095.95   62.52
  4145.9   62.39 4195.85   62.49  4245.8   61.92 4295.75    61.4  4345.7   61.15
 4395.65   60.94 4795.26   60.01 5045.01   60.19 5394.67   60.01 5444.62   61.74
 5494.57   60.84 5544.52      60 5594.47      60 5644.42   60.04 5744.32   60.34
 5794.27   60.43 5844.22   60.41 6044.03    60.1 6093.98   60.55 6143.93   62.09
 6193.88    62.2 6243.83      63 6253.27   63.02 6293.78   63.07 6343.73   63.03
 6393.68   63.53 6443.63   63.54 6543.53   63.13 6593.48   63.55 6643.43   63.83
 6693.38   63.92 6743.34   64.08 6793.29   63.98 6843.24   63.98 6893.19   66.37
 6943.14   65.02 6993.09   64.06 7043.04   64.45 7092.99   64.98 7142.94   65.25
 7192.89   66.57 7242.84   68.35 7292.79   68.75 7342.74   69.25 7392.69   69.99
 7442.65   70.45  7492.6   71.42 7542.55   71.93  7592.5   72.01 7642.45   72.32
  7692.4   72.36 7742.35   72.66  7792.3   72.65 7842.25   72.97  7892.2   72.95
 7942.15   73.31  7992.1   73.56 8042.05   73.58    8092   73.81 8141.95   73.87
 8191.91   74.09 8241.86   74.17 8341.76   74.13 8391.71   73.97 8441.66   73.85
 8841.26   73.44 8941.16   73.39 9091.01   73.49 9140.96   73.69 9190.91    73.7
 9240.86   73.84 9290.81   73.84 9390.71   73.93 9490.61   73.94 9540.56   73.92
 9640.46   73.95 9840.26   74.1110439.66   74.2510489.61   74.2410539.56   74.26
10589.51   74.2510639.46   74.3310689.42   74.3310739.37   74.4410789.32   74.44
10889.22   74.5910939.17   74.6211188.92   74.5411488.62    74.511588.52   74.74
11638.47   74.7811688.42   74.8811738.37   74.8611788.32   75.1111838.27    75.3
11938.17   75.3211988.12   75.2712038.07   75.1212088.02    75.112137.97   75.04
12187.92   75.0512287.82   75.2412337.77   75.2512387.72   75.3312437.67   75.34
12487.62   75.4112537.57   75.4412687.42   75.6712737.37    75.812787.32   75.86
12887.22   75.5912987.12   75.4413037.07   75.3913087.02   75.2913136.97   75.44
13186.92    76.113236.88   76.9413286.83   76.8513336.78   76.4713386.73   76.42
13436.68   76.1213486.63   76.1213536.58   75.6713636.48   75.6913686.43   76.07
13786.33   76.0713836.28   76.0313886.23   76.0313936.18   75.9713986.13   75.64
14036.08   75.4914285.83   75.4414385.73   75.3614485.63   75.2114535.58   75.18
14585.53   75.1114985.13   75.0215035.08   75.0815085.03    75.115134.98   75.08
15184.93   74.9715234.88   74.9315284.83   74.8415334.78   74.8115384.73   74.61
15434.68   74.5115484.63    74.315534.58   74.1315684.43   74.1615834.29   73.92
15884.24   73.7915934.19   73.7115984.14   73.4916034.09   73.3316084.04   73.29
16133.99   73.1816183.94   73.1916233.89   73.0616283.84   73.0616333.79      73
16733.39      7316783.35   73.06 16833.3   73.08 16933.2   73.3516983.15   73.41
17083.05   73.5917182.96   73.6717332.81   73.6717432.71   73.7217732.42   73.81
18032.12    73.818082.08   73.7118132.03   73.6918181.98    73.618281.88   73.54
18781.39   73.7318881.29   73.6518931.25   73.53 18981.2   73.4919031.15   73.35
 19081.1   73.3219131.05   73.17   19181   73.15 19280.9   72.8119330.86   72.81
19380.81   72.6819430.76   72.6719480.71   72.6119530.66   72.6319580.61   72.72