Flow Title=BOUNDARY_008
Program Version=4.10
Use Restart=0
Keep SA Constant=-1
$ITEMS
