Proj Title=$PROJECT_TITLE
Current Plan=p01
Default Exp/Contr=0.3,0.1
SI Units
Geom File=g01
Unsteady File=u01
Plan File=p01
Y Axis Title=Nivel
X Axis Title(PF)=Prog
X Axis Title(XS)=Station
BEGIN DESCRIPTION:

END DESCRIPTION:
DSS Start Date=$START_DATE
DSS Start Time=$START_TIME
DSS End Date=$END_DATE
DSS End Time=$END_TIME
DSS File=dss
DSS Export Filename=
DSS Export Rating Curves= 0
DSS Export Rating Curve Sorted= 0
DSS Export Volume Flow Curves= 0
DXF Filename=
DXF OffsetX= 0
DXF OffsetY= 0
DXF ScaleX= 1
DXF ScaleY= 10
GIS Export Reach=AnaCua          ,Canal_AnaCua
GIS Export Profiles= 0