Plan Title=$PLAN_TITLE
Program Version=5.07
Short Identifier=$PLAN_ID
Simulation Date=$TIMEFRAME
Geom File=g01
Flow File=u01
Subcritical Flow
K Sum by GR= 0
Std Step Tol= 0.01
Critical Tol= 0.01
Num of Std Step Trials= 20
Max Error Tol= 0.3
Flow Tol Ratio= 0.001
Split Flow NTrial= 30
Split Flow Tol= 0.02
Split Flow Ratio= 0.02
Log Output Level= 0
Friction Slope Method= 1
Unsteady Friction Slope Method= 2
Unsteady Bridges Friction Slope Method= 1
Parabolic Critical Depth
Global Vel Dist= 7 , 31 , 7
Global Log Level= 0
CheckData=True
Encroach Param=-1 ,0,0, 0
Optimized Junction=Bifurcacion
Optimized Junction=Guazu-Palmas
Optimized Junction=Guazu-Zanja-Tal
Optimized Junction=Guazu-Bravo
Optimized Junction=Guazu-Mini
Optimized Junction=Bravo-Sauce
Optimized Junction=Guazu-Barca
Optimized Junction=Guazu-Car
Optimized Junction=Mini-Arana
Optimized Junction=Tal-Iri
Optimized Junction=Car-Comas
Optimized Junction=Car-Seoane
Optimized Junction=Barca-Barqui
Optimized Junction=San-Sar
Optimized Junction=San-Vin
Optimized Junction=Uri-CdE
Optimized Junction=22
Optimized Junction=31
Optimized Junction=32
Optimized Junction=4
Optimized Junction=10
Optimized Junction=12
Optimized Junction=35
Computation Interval=1HOUR
Output Interval=1HOUR
Run HTab= 1
Run UNet= 1
Run PostProcess= 0
Run WQNet= 0
UNET Theta= 1
UNET Theta Warmup= 1
UNET ZTol= 0.005
UNET ZSATol= 0.02
UNET QTol=
UNET MxIter= 40
UNET MaxInSteps= 0
UNET DtIC= 0
UNET DtMin= 0
UNET MaxCRTS= 20
UNET WFStab= 2
UNET SFStab= 1
UNET WFX= 1
UNET SFX= 1
UNET DSS MLevel= 4
UNET DZMax Abort= 100
UNET Convert EG Bridges= 0
UNET Use Existing IB Tables=-1
UNET Froude Reduction=False
UNET Froude Limit= 0.8
UNET Froude Power= 4
UNET Time Slicing=0,0, 5
UNET Junction Losses=0
Instantaneous Interval=1HOUR
DSS File=dss
Write IC File= 1
IC Time=,27Oct2021,
Write IC File Reoccurance=
Write IC File at Sim End=-1
Echo Input=False
Echo Parameters=False
Echo Output=False
Write Detailed= 0
Stage Flow Hydrograph=Guazu           ,Desembocadura   ,8000
Stage Flow Hydrograph=Gutierrez       ,Desembocadura   ,19967.07
Stage Flow Hydrograph=Lujan           ,1               ,24.421
Stage Flow Hydrograph=Lujan           ,1               ,18.0191
Stage Flow Hydrograph=Lujan           ,2               ,5.828
Stage Flow Hydrograph=Mini            ,Desembocadura   ,11.9
Stage Flow Hydrograph=Palmas          ,2               ,101864.4
Stage Flow Hydrograph=Palmas          ,3               ,94654.47
Stage Flow Hydrograph=Palmas          ,4               ,57113.41
Stage Flow Hydrograph=Palmas          ,4               ,49019.05
Stage Flow Hydrograph=Palmas          ,Desembocadura   ,6246.783
Stage Flow Hydrograph=Parana          ,2b              ,237194.8
Stage Flow Hydrograph=Parana          ,2b              ,223194.8
Stage Flow Hydrograph=Parana          ,2b              ,188533.7
Stage Flow Hydrograph=Parana          ,2b              ,143588.9
Stage Flow Hydrograph=Parana          ,3               ,126030.6
Stage Flow Hydrograph=Parana          ,3               ,94846.95
Stage Flow Hydrograph=Parana          ,3               ,44071.76
Stage Flow Hydrograph=Parana          ,4               ,498.7283
Stage Flow Hydrograph=RioBaradero     ,RioBaradero     ,29.092*
Stage Flow Hydrograph=Victoria        ,Victoria        ,82.92
Stage Flow Hydrograph=Parana          ,ParanaAA        ,18.96
Stage Flow Hydrograph=Parana          ,ParanaAA        ,224000
Stage Flow Hydrograph=Parana          ,ParanaAA        ,18.96
Stage Flow Hydrograph=Guazu           ,4               ,4
Stage Flow Hydrograph=Palmas          ,3               ,68418.45
Stage Flow Hydrograph=CanalSeoane     ,CanalSeoane     ,1.00
Stage Flow Hydrograph=Ibicuy          ,Ibicuy          ,67.930*
Stage Flow Hydrograph=Palmas          ,1               ,138153.7
Stage Flow Hydrograph=Guazu           ,1               ,57.31
Stage Flow Hydrograph=Guazu           ,1               ,48.61*
Stage Flow Hydrograph=Guazu           ,2               ,47.725*
Stage Flow Hydrograph=Talavera        ,1               ,24.04
Stage Flow Hydrograph=ZanjaMercadal   ,ZanjaMercadal   ,6.50
Stage Flow Hydrograph=Guazu           ,2               ,46.84
Stage Flow Hydrograph=Guazu           ,3               ,10
Stage Flow Hydrograph=Guazu           ,3               ,1
Stage Flow Hydrograph=Guazu           ,4               ,4
Stage Flow Hydrograph=Talavera        ,2               ,0.00
Stage Flow Hydrograph=Guazu           ,5               ,1
Stage Flow Hydrograph=Guazu           ,6               ,37100
Stage Flow Hydrograph=Bravo           ,1               ,29.4
Stage Flow Hydrograph=Guazu           ,6               ,20600
Stage Flow Hydrograph=Guazu           ,Desembocadura   ,16000.0
Stage Flow Hydrograph=Mini            ,1               ,33.95
Stage Flow Hydrograph=BarcaGrande     ,1               ,24.89
Stage Flow Hydrograph=Palmas          ,5               ,45033.09
Stage Flow Hydrograph=Ibicuy          ,Ibicuy          ,7.16
Stage Flow Hydrograph=CarabelasGrande ,1               ,33.3
Stage Flow Hydrograph=Palmas          ,4               ,46769.88
Stage Flow Hydrograph=Palmas          ,8               ,21307.62
WQ AD Non Conservative
WQ ULTIMATE=-1
WQ Max Comp Step=1HOUR
WQ Output Interval=15MIN
WQ Output Selected Increments= 0
WQ Output face flow=0
WQ Output face velocity=0
WQ Output face area=0
WQ Output face dispersion=0
WQ Output cell volume=0
WQ Output cell surface area=0
WQ Output cell continuity=0
WQ Output cumulative cell continuity=0
WQ Output face conc=0
WQ Output face dconc_dx=0
WQ Output face courant=0
WQ Output face peclet=0
WQ Output face adv mass=0
WQ Output face disp mass=0
WQ Output cell mass=0
WQ Output cell source sink temp=0
WQ Output cell source sink nsm=0
WQ Output MaxMinRange=-1
WQ Daily Max Min Mean=-1
WQ Daily Range=0
WQ Daily Time=0
WQ Create Restart=0
WQ Fixed Restart=0
WQ Restart Simtime=
WQ Restart Date=
WQ Restart Hour=
WQ System Summary=0
WQ Use Fixed Temperature=0
WQ Fixed Temperature=
Sorting and Armoring Iterations= 10
XS Update Threshold= 0.02
Hydraulics Update Threshold= 0.02
Energy Slope Method= 1
Volume Change Method= 1
XS Weighting Method= 0
Number of US Weighted Cross Sections= 1
Number of DS Weighted Cross Sections= 1
Upstream XS Weight=0
Main XS Weight=1
Downstream XS Weight=0
Number of DS XS's Weighted with US Boundary= 1
Upstream Boundary Weight= 1
Weight of XSs Associated with US Boundary= 0
Number of US XS's Weighted with DS Boundary= 1
Downstream Boundary Weight= 0.5
Weight of XSs Associated with DS Boundary= 0.5
Sediment Output Level= 4
Mass or Volume Output= 0
Output Increment Type= 1
Profile and TS Output Increment= 1
XS Output Flag= 0
XS Output Increment= 10
Disregard all LS=0
Disregard all Conn=0
Disregard all Breaches=0
Disregard all Pumps=0
