Flow Title=BOUNDARY_008
Program Version=4.10
$INITIAL_STATUS
$BOUNDARY_LOCATIONS