Flow Title=-Modelo1
Program Version=4.10
Use Restart= 0
Initial Flow Loc=AnaCua          ,Canal_AnaCua    ,25686.44,4440
Initial Flow Loc=GdorDeLaSerna   ,GdorDeLaSerna   ,12.38   ,100
Initial Flow Loc=Paraguay        ,Paraguay        ,375000  ,1700
Initial Flow Loc=Parana          ,Embalse         ,1115600 ,6700
Initial Flow Loc=Parana          ,Medio           ,1055064.,11100
Initial Flow Loc=Parana          ,ParanaAB-Conf   ,863926.8,12800
Initial Flow Loc=Parana          ,Bif - V.Const   ,111.28  ,11000
Initial Flow Loc=Parana          ,VCons - Pedro   ,116.84  ,8800
Initial Flow Loc=Parana          ,Palmas          ,93.92   ,7900
Initial Flow Loc=Parana          ,Guazu-1         ,57.31   ,900
Initial Flow Loc=Parana          ,Pavon           ,42.90   ,2200
Initial Flow Loc=Parana          ,Victoria        ,137.70  ,1800
Initial Flow Loc=Parana          ,Ibicuy          ,85.10   ,4000
Initial Flow Loc=Parana          ,Talavera        ,24.04   ,1700
Initial Flow Loc=Parana          ,Guazu-2         ,47.725* ,800
Initial Flow Loc=Parana          ,Guazu-3Talavera ,40.86   ,3200
Initial Flow Loc=Parana          ,Guazu-4         ,12.76   ,4900
Initial Flow Loc=Parana          ,Guazy-5         ,-5.2    ,3400
Initial Flow Loc=Parana          ,Bravo           ,29.4    ,1500
Initial Flow Loc=Parana          ,Mini            ,33.95   ,1200
Initial Flow Loc=Parana          ,Guazu-6         ,-19.*   ,1100
Initial Flow Loc=Parana          ,Palmas-Desemboca,-24.62  ,7800
Initial Flow Loc=Parana          ,Bravo-Desembocad,5.6     ,1100
Initial Flow Loc=Parana          ,Mini-Desembocadu,19.85   ,1300
Initial Flow Loc=Parana          ,Guazu-6Desemboca,-21.91  ,1100
Initial Flow Loc=Parana          ,BarcaGrande     ,24.89   ,1100
Initial Flow Loc=Parana          ,Sauce           ,12.8    ,1200
Boundary Location=AnaCua          ,Canal_AnaCua    ,25686.44,        ,                ,                ,
Interval=1DAY
Flow Hydrograph= 2527
 2220.00 2240.00 2220.00 2620.00 2980.00 2780.00 2800.00 2740.00 2720.00 2900.00 2840.00 2800.00 2720.00 2740.00 2660.00 2820.00 2620.00 2560.00 2520.00 2540.00 2800.00 2680.00 2740.00 2840.00 2780.00 3040.00 2860.00 2720.00 2660.00 2680.00 2980.00 3220.00 3160.00 3060.00 2820.00 2800.00 2960.00 3000.00 3100.00 3240.00 2880.00 2600.00 2560.00 2540.00 2560.00 2660.00 2620.00 2520.00 2300.00 2060.00 2180.00 2140.00 2340.00 2420.00 2460.00 2380.00 2480.00 2440.00 2540.00 2580.00 2300.00 2160.00 2080.00 2020.00 2040.00 2120.00 2500.00 2240.00 2080.00 2140.00 2220.00 2280.00 2360.00 2500.00 2340.00 2480.00 2660.00 2700.00 2700.00 3060.00 3120.00 3080.00 2900.00 2780.00 2640.00 2620.00 2580.00 2580.00 2620.00 2720.00 2700.00 2900.00 3040.00 3000.00 2880.00 2640.00 2600.00 2440.00 2440.00 2680.00 2920.00 3020.00 3380.00 3820.00 3500.00 2760.00 2580.00 2580.00 2580.00 2860.00 2780.00 2460.00 2580.00 2300.00 2540.00 2580.00 2520.00 2580.00 2600.00 2560.00 3020.00 3540.00 3960.00 4280.00 4040.00 3800.00 3200.00 3020.00 3200.00 3080.00 2760.00 2460.00 2500.00 2160.00 2340.00 2280.00 2420.00 2500.00 2480.00 2400.00 2520.00 2660.00 2880.00 2940.00 2720.00 2600.00 2580.00 2560.00 3020.00 3220.00 3220.00 3160.00 2940.00 2800.00 2940.00 3120.00 3060.00 2900.00 2700.00 3040.00 3260.00 6800.00 7740.00 7400.00 6320.00 5980.00 5980.00 5800.00 5060.00 4400.00 4000.00 4100.00 4140.00 3900.00 3440.00 3320.00 4000.00 4200.00 4860.00 5360.00 5480.00 5460.00 5160.00 4900.00 4380.00 3860.00 3860.00 3600.00 3200.00 3060.00 3040.00 3060.00 3080.00 3000.00 2980.00 2640.00 2480.00 2580.00 2960.00 3220.00 3220.00 2980.00 2800.00 2780.00 2920.00 3260.00 3500.00 3620.00 3500.00 3180.00 3040.00 3060.00 3060.00 3160.00 3200.00 2920.00 2720.00 2720.00 2780.00 2880.00 2880.00 2840.00 2760.00 2620.00 2580.00 2540.00 2600.00 2580.00 2600.00 2380.00 2060.00 2200.00 2220.00 2220.00 2220.00 2420.00 2260.00 2200.00 2220.00 2260.00 2280.00 2320.00 2280.00 1940.00 1880.00 1940.00 2260.00 2400.00 2480.00 2500.00 2160.00 2240.00 2180.00 2160.00 2160.00 2160.00 2200.00 2100.00 2120.00 2100.00 2280.00 2300.00 2300.00 2480.00 2580.00 2660.00 2860.00 2920.00 3020.00 3080.00 3180.00 3100.00 3320.00 4580.00 5280.00 5300.00 5080.00 4840.00 4340.00 3620.00 3500.00 3300.00 3320.00 3420.00 3500.00 3400.00 3060.00 2840.00 2840.00 3000.00 3140.00 3140.00 3000.00 2740.00 2580.00 2500.00 2460.00 2500.00 2500.00 2200.00 2380.00 2320.00 2500.00 2600.00 2780.00 2880.00 2880.00 2560.00 2220.00 2400.00 2520.00 2620.00 2800.00 2960.00 2760.00 2520.00 2480.00 2500.00 2680.00 2680.00 2580.00 2480.00 2500.00 2480.00 2460.00 2480.00 2220.00 2040.00 2240.00 2440.00 2440.00 2480.00 2480.00 2440.00 2180.00 2500.00 2780.00 2980.00 2720.00 2480.00 2460.00 2280.00 2400.00 2480.00 2480.00 2480.00 2640.00 2620.00 2420.00 2480.00 2480.00 2500.00 2340.00 2500.00 2500.00 2420.00 2580.00 2140.00 2040.00 2120.00 2120.00 2100.00 2380.00 2580.00 2680.00 3040.00 3300.00 3840.00 4120.00 3940.00 3260.00 2860.00 2860.00 2900.00 3100.00 2900.00 2760.00 2960.00 3020.00 3260.00 3240.00 3100.00 3040.00 2940.00 2800.00 2920.00 3120.00 3180.00 2900.00 2720.00 2640.00 2640.00 2560.00 2540.00 2760.00 2920.00 2880.00 2740.00 2620.00 2600.00 2820.00 2800.00 2780.00 2680.00 2600.00 2480.00 2420.00 2480.00 2680.00 2620.00 2560.00 2640.00 2660.00 2440.00 2380.00 2520.00 2560.00 2700.00 2600.00 2500.00 2720.00 2820.00 2900.00 2860.00 2920.00 2940.00 2820.00 2660.00 2680.00 3020.00 3080.00 3000.00 2840.00 2840.00 2660.00 2840.00 2960.00 2980.00 2920.00 2820.00 2700.00 2680.00 2840.00 2980.00 2980.00 2940.00 2760.00 2560.00 2460.00 2380.00 2340.00 2580.00 2680.00 2500.00 2400.00 2360.00 2360.00 2400.00 2260.00 2160.00 1980.00 2280.00 2340.00 2340.00 2340.00 2300.00 2220.00 2100.00 2000.00 2100.00 2200.00 2340.00 2340.00 2220.00 2200.00 2340.00 2340.00 2480.00 2480.00 2480.00 2220.00 2200.00 2200.00 2340.00 2320.00 2320.00 2040.00 2040.00 1940.00 2200.00 2200.00 2340.00 2200.00 2200.00 2120.00 2100.00 2200.00 2200.00 2340.00 2340.00 2340.00 2180.00 2080.00 2200.00 2340.00 2340.00 2340.00 2340.00 2480.00 2500.00 2480.00 2520.00 2640.00 2640.00 2620.00 2620.00 2640.00 2640.00 2620.00 2640.00 2400.00 2400.00 2160.00 2200.00 2300.00 2400.00 2480.00 2580.00 2500.00 2240.00 2200.00 2340.00 2340.00 2480.00 2700.00 2700.00 2680.00 2480.00 2480.00 2480.00 2380.00 2380.00 2380.00 2280.00 2060.00 2160.00 2440.00 2680.00 2680.00 2660.00 2640.00 2400.00 2660.00 2680.00 2800.00 3340.00 3500.00 3760.00 3940.00 4500.00 4660.00 5200.00 5400.00 5000.00 5020.00 4760.00 4600.00 4600.00 4800.00 4740.00 4480.00 4140.00 4180.00 4040.00 3740.00 3440.00 3420.00 3400.00 2960.00 2780.00 2720.00 2720.00 2680.00 2820.00 2760.00 2680.00 2680.00 2680.00 2640.00 2680.00 2660.00 2680.00 2660.00 2680.00 2660.00 2420.00 2560.00 2660.00 2680.00 2680.00 2120.00 2340.00 2460.00 2380.00 2340.00 2220.00 2140.00 2040.00 2380.00 2220.00 2200.00 2260.00 2360.00 2280.00 2080.00 2080.00 2180.00 2240.00 2200.00 2200.00 2160.00 2000.00 2200.00 2280.00 2440.00 2520.00 2520.00 2240.00 2280.00 2520.00 2500.00 2520.00 2380.00 2500.00 2580.00 2380.00 2600.00 2520.00 2380.00 2440.00 2360.00 2400.00 2340.00 2420.00 2500.00 2540.00 2680.00 2840.00 2820.00 2720.00 2600.00 2620.00 2600.00 2580.00 2560.00 2700.00 2960.00 3180.00 3300.00 3260.00 3300.00 3300.00 3280.00 3300.00 3300.00 3260.00 3120.00 3080.00 3020.00 2860.00 2660.00 2520.00 2580.00 2820.00 3100.00 3300.00 3300.00 3280.00 3300.00 3340.00 3880.00 4000.00 4080.00 3840.00 3700.00 3420.00 3220.00 3420.00 3860.00 4260.00 4860.00 5020.00 5140.00 5120.00 5240.00 5460.00 5560.00 5760.00 5860.00 5860.00 5880.00 5840.00 5880.00 5880.00 5880.00 5880.00 5620.00 5220.00 5080.00 5060.00 5140.00 5240.00 5600.00 6180.00 6480.00 6680.00 6640.00 6200.00 5900.00 5920.00 5840.00 5660.00 5660.00 5760.00 5300.00 4780.00 4440.00 4520.00 4620.00 4640.00 4760.00 4940.00 5180.00 5640.00 5980.00 5960.00 5700.00 5560.00 5560.00 5580.00 5560.00 5320.00 5340.00 5660.00 5700.00 5700.00 5620.00 5440.00 5440.00 5440.00 5380.00 5360.00 5300.00 5180.00 5180.00 4780.00 4760.00 4600.00 4280.00 4060.00 4000.00 3980.00 3980.00 3980.00 3920.00 3740.00 3620.00 3600.00 3540.00 3480.00 3400.00 3540.00 3820.00 3860.00 3840.00 3640.00 3460.00 3440.00 3480.00 3460.00 3460.00 3480.00 3480.00 3560.00 3680.00 3980.00 4220.00 4780.00 5320.00 5660.00 5860.00 5880.00 6000.00 6120.00 6120.00 6120.00 6200.00 5960.00 5960.00 5800.00 5160.00 5140.00 4840.00 4900.00 4700.00 4320.00 4100.00 4100.00 4120.00 4040.00 4180.00 4220.00 4160.00 4120.00 4200.00 4280.00 4300.00 4320.00 4240.00 4020.00 3840.00 3660.00 3580.00 3560.00 3560.00 3580.00 3560.00 3420.00 3320.00 3340.00 3440.00 3320.00 3300.00 3200.00 3180.00 3200.00 3080.00 3060.00 3060.00 3060.00 3060.00 3120.00 3220.00 3200.00 3140.00 2900.00 2880.00 3060.00 3140.00 3080.00 2840.00 2640.00 2660.00 2660.00 2660.00 2620.00 2560.00 2600.00 2720.00 2520.00 2780.00 2800.00 2860.00 3000.00 3040.00 3000.00 3000.00 2920.00 2800.00 2800.00 2780.00 2800.00 2920.00 3020.00 3080.00 3020.00 3160.00 3180.00 3300.00 3240.00 3340.00 3260.00 3200.00 3460.00 3840.00 3920.00 3880.00 3940.00 4040.00 4140.00 4320.00 4360.00 4360.00 4300.00 4260.00 4260.00 3860.00 3660.00 3600.00 3540.00 3400.00 3220.00 3140.00 3060.00 3140.00 3220.00 3300.00 3420.00 3300.00 3320.00 3180.00 3160.00 3120.00 3100.00 3060.00 3120.00 3040.00 2940.00 2920.00 3000.00 3060.00 3060.00 2800.00 2900.00 2780.00 2780.00 2720.00 2720.00 2720.00 2660.00 2720.00 2780.00 2800.00 2740.00 2760.00 2760.00 2740.00 2720.00 2700.00 2740.00 2740.00 2700.00 2700.00 2720.00 2740.00 2720.00 2560.00 2620.00 2500.00 2440.00 2280.00 2400.00 2440.00 2520.00 2540.00 2500.00 2600.00 2420.00 2260.00 2540.00 2740.00 2720.00 2720.00 2740.00 2900.00 2820.00 3100.00 3560.00 3620.00 3720.00 3700.00 3720.00 3520.00 3240.00 3180.00 3180.00 3240.00 3080.00 2980.00 2920.00 2800.00 2760.00 2840.00 2980.00 2960.00 3100.00 3100.00 3100.00 2960.00 2840.00 2800.00 2820.00 2840.00 2780.00 2720.00 2760.00 2740.00 2760.00 2560.00 2560.00 2640.00 2600.00 2600.00 2660.00 2740.00 2700.00 2760.00 2660.00 2620.00 2580.00 2620.00 2660.00 2740.00 2400.00 2520.00 2740.00 2800.00 2960.00 3060.00 2960.00 2920.00 2820.00 2840.00 3120.00 3100.00 3060.00 3080.00 3020.00 3040.00 3140.00 3180.00 3020.00 3020.00 3120.00 3120.00 3080.00 3220.00 3300.00 3360.00 3340.00 3100.00 2980.00 2980.00 2900.00 2900.00 3200.00 3320.00 3200.00 2920.00 2740.00 2680.00 2720.00 2760.00 2760.00 2760.00 2520.00 2540.00 2520.00 2560.00 2560.00 2560.00 2420.00 2420.00 2720.00 2760.00 2840.00 2800.00 2740.00 2560.00 2620.00 2840.00 2820.00 2820.00 2800.00 3040.00 2960.00 2880.00 2820.00 2940.00 3100.00 3100.00 3060.00 3120.00 2940.00 2780.00 2940.00 3300.00 3400.00 3180.00 3080.00 2940.00 2820.00 2740.00 2860.00 2860.00 2880.00 2860.00 2900.00 2880.00 2880.00 2840.00 2860.00 3040.00 3040.00 2880.00 3100.00 3240.00 3240.00 3200.00 3220.00 3160.00 2920.00 2820.00 2780.00 2800.00 2740.00 2740.00 2700.00 2740.00 2740.00 2720.00 2720.00 2740.00 2520.00 2380.00 2340.00 2560.00 2740.00 2900.00 3060.00 3080.00 3060.00 3060.00 3080.00 3040.00 2980.00 2980.00 3040.00 2960.00 2880.00 2820.00 3000.00 3160.00 3300.00 3340.00 3360.00 3280.00 3100.00 3240.00 3380.00 3140.00 2960.00 2900.00 2760.00 2540.00 2420.00 2460.00 2500.00 2600.00 2780.00 3280.00 3240.00 3300.00 3300.00 3300.00 3520.00 3420.00 3140.00 2820.00 2720.00 2700.00 2720.00 2860.00 3000.00 2840.00 2760.00 2720.00 2740.00 2560.00 2540.00 2560.00 2520.00 2700.00 2720.00 2680.00 2700.00 2600.00 2380.00 2160.00 2340.00 2360.00 2340.00 2760.00 2760.00 2980.00 3320.00 3280.00 3080.00 2800.00 2600.00 2320.00 2320.00 2200.00 2380.00 2480.00 2700.00 2620.00 2620.00 2580.00 2400.00 2580.00 3180.00 4300.00 4320.00 3860.00 3120.00 2820.00 2780.00 2700.00 2300.00 2220.00 2560.00 2600.00 2640.00 2580.00 2560.00 2680.00 2700.00 2720.00 2720.00 2460.00 2780.00 2700.00 2640.00 2660.00 2980.00 3360.00 3480.00 3540.00 3720.00 3980.00 4080.00 3980.00 3840.00 3700.00 3620.00 3700.00 3740.00 3580.00 3480.00 4120.00 4220.00 4120.00 4060.00 4240.00 4380.00 4360.00 4320.00 4260.00 3940.00 3940.00 4140.00 4140.00 3860.00 3360.00 3140.00 2920.00 2880.00 2860.00 2880.00 2840.00 2780.00 2780.00 2800.00 2660.00 2560.00 2660.00 2660.00 2720.00 2580.00 2600.00 2400.00 2460.00 2440.00 2360.00 2160.00 2080.00 2360.00 2380.00 2620.00 2380.00 2360.00 2260.00 2220.00 2500.00 2500.00 2520.00 2580.00 2480.00 2320.00 2100.00 2320.00 2380.00 2180.00 2260.00 2260.00 2120.00 2080.00 2120.00 2200.00 2160.00 2180.00 2200.00 2040.00 1960.00 2060.00 2080.00 2100.00 2200.00 2360.00 2200.00 2180.00 2380.00 2380.00 2380.00 2480.00 2480.00 2320.00 2180.00 2300.00 2280.00 2480.00 2520.00 2600.00 2640.00 2320.00 2320.00 2780.00 2580.00 2500.00 2500.00 2140.00 2020.00 2120.00 2120.00 2380.00 2240.00 2320.00 2140.00 2040.00 2240.00 2160.00 2160.00 2140.00 2140.00 2040.00 1940.00 1980.00 2000.00 2380.00 2280.00 2220.00 2220.00 2180.00 2420.00 2440.00 2440.00 2800.00 2560.00 2460.00 2260.00 2560.00 2440.00 2420.00 2480.00 2640.00 2640.00 2640.00 2660.00 2660.00 2980.00 3460.00 3600.00 3540.00 3300.00 2760.00 2740.00 2760.00 2900.00 2940.00 3240.00 4020.00 3880.00 3320.00 3300.00 3500.00 3360.00 3200.00 3360.00 3540.00 3880.00 4200.00 4320.00 4420.00 4580.00 4520.00 4400.00 4160.00 4240.00 4220.00 4160.00 3840.00 3500.00 3360.00 3260.00 3360.00 3420.00 3000.00 3060.00 3240.00 3400.00 3540.00 3360.00 3140.00 3040.00 3220.00 3280.00 3300.00 3380.00 3580.00 3640.00 3560.00 3360.00 3140.00 3180.00 3140.00 3320.00 3480.00 3400.00 3200.00 3120.00 3200.00 3160.00 3080.00 3160.00 3220.00 3100.00 3060.00 3060.00 3020.00 2980.00 3120.00 3220.00 3180.00 3140.00 2940.00 2860.00 2860.00 2860.00 3000.00 3340.00 3500.00 3680.00 3780.00 3780.00 3940.00 4060.00 3880.00 3720.00 3540.00 3460.00 3380.00 3520.00 3520.00 3540.00 4300.00 4420.00 4380.00 4560.00 4700.00 4820.00 5140.00 5400.00 5540.00 5300.00 4980.00 4580.00 4340.00 4360.00 4340.00 4200.00 3960.00 3680.00 3360.00 3220.00 3220.00 3220.00 3080.00 2920.00 2920.00 2900.00 2920.00 2920.00 3060.00 2920.00 2820.00 2800.00 2820.00 2860.00 2900.00 2980.00 2980.00 2940.00 3000.00 3160.00 3200.00 3120.00 3120.00 3080.00 3020.00 3040.00 3120.00 3180.00 3380.00 3440.00 3360.00 3340.00 3480.00 3620.00 3640.00 3600.00 3660.00 3500.00 3360.00 3340.00 3400.00 3440.00 3440.00 3360.00 3380.00 3240.00 3300.00 3360.00 3400.00 3400.00 3460.00 3280.00 3200.00 3280.00 3500.00 3520.00 3480.00 3520.00 3580.00 3600.00 3460.00 3340.00 3320.00 3360.00 3340.00 3240.00 3020.00 2920.00 2800.00 2960.00 2960.00 2820.00 2800.00 2640.00 2680.00 2820.00 2560.00 2380.00 2240.00 2460.00 2400.00 2440.00 2560.00 2540.00 2360.00 2220.00 2180.00 2220.00 2580.00 2560.00 2620.00 2220.00 2000.00 2280.00 2360.00 2360.00 2360.00 2360.00 2180.00 2040.00 2180.00 1960.00 1980.00 2100.00 2120.00 2000.00 2120.00 2460.00 2600.00 2500.00 2160.00 2040.00 1980.00 1920.00 2040.00 2060.00 2080.00 1960.00 1940.00 1880.00 1840.00 1840.00 1880.00 1900.00 1900.00 1900.00 1860.00 1840.00 1860.00 1980.00 2180.00 2220.00 2220.00 2020.00 1660.00 1880.00 1900.00 1860.00 1960.00 1960.00 1860.00 1860.00 1880.00 1900.00 1960.00 2100.00 2120.00 1920.00 1900.00 1960.00 2060.00 2420.00 2560.00 2160.00 1900.00 1900.00 1660.00 1840.00 1880.00 1860.00 1840.00 1740.00 1740.00 1720.00 1820.00 1760.00 1720.00 1720.00 1720.00 1700.00 1680.00 1700.00 1720.00 1720.00 1720.00 1680.00 1680.00 1680.00 2380.00 2620.00 2600.00 2600.00 1820.00 1800.00 1920.00 1880.00 2020.00 2160.00 2160.00 1900.00 1880.00 2240.00 2220.00 2400.00 2420.00 2320.00 2000.00 2020.00 2280.00 2220.00 2100.00 2160.00 2240.00 2040.00 1920.00 2040.00 2040.00 2040.00 2060.00 2060.00 1880.00 1880.00 2000.00 2020.00 2140.00 2260.00 2280.00 1980.00 1880.00 1980.00 1880.00 1840.00 1840.00 1820.00 1720.00 1720.00 1720.00 1720.00 1720.00 1760.00 1860.00 1860.00 2040.00 2460.00 2600.00 2620.00 2660.00 2560.00 2540.00 2560.00 2460.00 2440.00 2520.00 2600.00 2600.00 2600.00 2680.00 2740.00 2720.00 2760.00 2880.00 3040.00 3160.00 3160.00 3160.00 3280.00 3440.00 3500.00 3620.00 3440.00 3280.00 3160.00 3160.00 3140.00 3140.00 3160.00 3180.00 3160.00 3220.00 3460.00 3480.00 4020.00 4040.00 4060.00 4080.00 3740.00 3560.00 3540.00 3580.00 3440.00 3300.00 3320.00 3320.00 3240.00 3300.00 3440.00 3620.00 3760.00 3740.00 3480.00 3240.00 3180.00 3160.00 3160.00 3160.00 3160.00 3120.00 3220.00 3140.00 3020.00 2940.00 3000.00 2940.00 2880.00 2880.00 2880.00 2680.00 2700.00 2600.00 2560.00 2600.00 2680.00 2480.00 2380.00 2560.00 2360.00 2360.00 2620.00 2400.00 2540.00 2600.00 2580.00 2500.00 2620.00 2560.00 2680.00 2700.00 2740.00 2420.00 2280.00 2100.00 2200.00 2120.00 2160.00 2160.00 2300.00 2080.00 1960.00 1940.00 2100.00 2160.00 2080.00 2200.00 2380.00 2460.00 2800.00 2700.00 2820.00 2920.00 3040.00 3120.00 3040.00 2760.00 2720.00 2720.00 2760.00 2780.00 2760.00 2900.00 2600.00 2600.00 2500.00 2540.00 2600.00 2080.00 2080.00 2360.00 2440.00 2440.00 2580.00 2400.00 2020.00 1940.00 1960.00 1940.00 2060.00 2400.00 2380.00 1940.00 1840.00 1900.00 2040.00 2040.00 2220.00 2200.00 1960.00 1980.00 2220.00 2160.00 2380.00 2400.00 2400.00 2240.00 1940.00 1940.00 1960.00 1940.00 2320.00 2560.00 3280.00 3160.00 2860.00 2600.00 2600.00 2760.00 2760.00 2780.00 2620.00 2620.00 2520.00 2440.00 2740.00 2720.00 2520.00 2180.00 2280.00 2260.00 2400.00 2400.00 2400.00 2100.00 2020.00 2160.00 2180.00 2280.00 2560.00 2760.00 2500.00 2320.00 2500.00 2520.00 2480.00 2520.00 2520.00 2200.00 2120.00 2400.00 2400.00 2540.00 2460.00 2060.00 2040.00 1880.00 2160.00 2120.00 2180.00 2340.00 2520.00 2760.00 2760.00 2760.00 2540.00 2280.00 2300.00 2240.00 2080.00 2060.00 2240.00 2520.00 2520.00 2580.00 2940.00 3180.00 2960.00 2960.00 2660.00 2460.00 2440.00 2400.00 2060.00 2020.00 2000.00 2260.00 2260.00 2280.00 2180.00 2160.00 2140.00 2320.00 2480.00 2180.00 2220.00 2460.00 2240.00 2820.00 2760.00 2780.00 2740.00 2760.00 2760.00 2660.00 2580.00 2500.00 2560.00 2480.00 2460.00 2480.00 2500.00 2100.00 2280.00 2240.00 2460.00 2160.00 2020.00 1840.00 1780.00 1840.00 1840.00 1840.00 1840.00 1840.00 1840.00 1740.00 2020.00 2120.00 2020.00 2080.00 2120.00 2060.00 2020.00 1960.00 1860.00 2000.00 2000.00 1900.00 1800.00 1780.00 1780.00 1800.00 1780.00 1800.00 1800.00 1800.00 1820.00 1800.00 1800.00 1920.00 2360.00 2380.00 2380.00 2420.00 2220.00 2160.00 2040.00 2040.00 1940.00 1800.00 1800.00 1820.00 1820.00 1820.00 1760.00 1760.00 1760.00 1760.00 1940.00 2000.00 1980.00 1940.00 1880.00 1800.00 1720.00 1720.00 1720.00 1740.00 1820.00 1800.00 1800.00 1700.00 1700.00 1700.00 1720.00 1720.00 1880.00 1780.00 1780.00 1800.00 1860.00 1820.00 1800.00 1800.00 1800.00 1900.00 1940.00 2200.00 2360.00 1900.00 1880.00 2040.00 2040.00 2180.00 2340.00 2320.00 2300.00 2220.00 2220.00 2040.00 2020.00 2160.00 1920.00 1800.00 1800.00 1960.00 1800.00 1800.00 2000.00 2040.00 2080.00 2160.00 2120.00 1940.00 2040.00 2120.00 2140.00 2100.00 1780.00 1740.00 1660.00 1760.00 1760.00 1860.00 2040.00 1980.00 1920.00 1860.00 1900.00 1820.00 2000.00 2000.00 2000.00 1960.00 1980.00 2040.00 2080.00 1920.00 1900.00 1900.00 1940.00 1840.00 1880.00 2280.00 2240.00 2260.00 2300.00 2140.00 2020.00 2040.00 2100.00 2120.00 2260.00 2080.00 2020.00 1860.00 1980.00 1960.00 2040.00 2080.00 2000.00 1840.00 1840.00 2000.00 2000.00 1900.00 1920.00 1920.00 1840.00 1840.00 1840.00 1880.00 1980.00 1880.00 1860.00 1840.00 1840.00 1860.00 2080.00 1980.00 2160.00 2220.00 2140.00 2140.00 2220.00 2220.00 2180.00 2120.00 2200.00 2080.00 1980.00 2380.00 2160.00 1880.00 1920.00 1920.00 1920.00 2000.00 2240.00 2200.00 1900.00 2100.00 2180.00 2040.00 2000.00 2080.00 2080.00 2400.00 2420.00 2340.00 2300.00 2240.00 2340.00 2340.00 2460.00 2380.00 2400.00 2380.00 2560.00 2660.00 2380.00 2300.00 2340.00 2520.00 2180.00 2160.00 2340.00 2300.00 2260.00 2200.00 2320.00 2300.00 2320.00 2360.00 2620.00 2540.00 2460.00 2460.00 2200.00 2080.00 2280.00 2220.00 2260.00 2220.00 2040.00 2060.00 2160.00 2500.00 2420.00 2460.00 2300.00 2280.00 2140.00 2020.00 2020.00 2020.00 2020.00 2240.00 2200.00 2040.00 1900.00 1900.00 1960.00 2320.00 2240.00 2160.00 1920.00 1920.00 1940.00 2080.00 1940.00 1960.00 1960.00 1960.00 1920.00 2120.00 2100.00 2200.00 2200.00 2200.00 1980.00 2040.00 2040.00 2040.00 2000.00 1600.00 1540.00 1440.00 1440.00 1520.00 1520.00 1440.00 1440.00 1440.00 1440.00 1440.00 1440.00 1440.00 1440.00 1400.00 1360.00 1280.00 1200.00 1280.00 1280.00 1280.00 1280.00 1280.00 1280.00 1280.00 1360.00 1400.00 1400.00 1440.00 1440.00 1440.00 1440.00 1480.00 1520.00 1520.00 1520.00 1520.00 1480.00 1480.00 1480.00 1480.00 1480.00 1440.00 1440.00 1420.00 1320.00 1320.00 1320.00 1340.00 1380.00 1380.00 1220.00 1380.00 1480.00 2140.00 2160.00 1860.00 1680.00 1680.00 1680.00 1680.00 2000.00 2340.00 2260.00 2260.00 1900.00 1840.00 1600.00 1600.00 1600.00 1600.00 1600.00 1600.00 1600.00 1600.00 1600.00 1680.00 1680.00 1800.00 1820.00 1820.00 1820.00 1820.00 1820.00 1740.00 1740.00 1600.00 1600.00 1600.00 1600.00 1600.00 1600.00 1600.00 1600.00 1600.00 1380.00 1640.00 1740.00 1700.00 1700.00 1700.00 1620.00 1780.00 1880.00 1920.00 2040.00 2420.00 2440.00 2200.00 2200.00 2140.00 2020.00 1880.00 1800.00 1600.00 1600.00 1600.00 1600.00 1600.00 1600.00 1600.00 1600.00 1600.00 1600.00 1600.00 1600.00 1600.00 1600.00 1500.00 1500.00 1520.00 1560.00 1560.00 1520.00 1520.00 1560.00 1540.00 1720.00 2220.00 2220.00 2060.00 1800.00 1660.00 1520.00 1500.00 1700.00 2000.00 2220.00 2260.00 2120.00 2080.00 2180.00 2320.00 2200.00 2200.00 2180.00 2140.00 2040.00 2280.00 2260.00 2320.00 2340.00 2100.00 1800.00 1780.00 1900.00 1880.00 1860.00 1720.00 1680.00 1680.00 1891.90 1903.80 1915.70 1927.59 1939.49 1984.61 2067.72 2154.52 2180.71 2206.92 2233.42 2260.43 2288.10 2316.50 2345.71 2375.80 2406.82 2438.81 2471.82 2505.97 2541.38 2570.50 2600.77 2632.04 2664.07 2696.55 2728.99 2760.84 2791.55 2820.60 2847.48 2871.76 2893.04 2911.14 2926.12 2938.16 2947.74 2955.58 2962.67 2970.08 2978.92 2990.10 3004.31 3021.83 3042.44 3065.45 3089.84 3114.31 3137.53 3158.25 3175.51 3188.76 3197.81 3202.81 3204.18 3202.55 3198.61 3193.03 3186.42 3179.37 3172.50 3166.50 3162.10 3160.06 3161.14 3166.02 3175.18 3188.80 3206.70 3228.35 3252.89 3279.29 3306.49 3333.21 3358.77 3382.72 3402.46 3421.44 3439.52
Boundary Location=Parana          ,Embalse         ,1115600 ,        ,                ,                ,
Interval=1DAY
Flow Hydrograph= 2527